Version 4
SHEET 1 1060 720
TEXT 336 -104 Left 2 ;Main.C
TEXT -240 104 Left 2 ;UART Communication
TEXT 176 104 Left 2 ;Relay Control
TEXT 608 104 Left 2 ;Button Control
TEXT 608 440 Left 2 ;LED Indication
TEXT -240 128 Left 2 ;- Sending Confirmations
TEXT -240 152 Left 2 ;- Receiving Commands
TEXT -240 176 Left 2 ;- Extracting Commands
TEXT 176 152 Left 2 ;- Relay turn on
TEXT 176 176 Left 2 ;- Relay turn off
TEXT 608 128 Left 2 ;- Receiving Click
TEXT 608 152 Left 2 ;- Measuring Click Time
TEXT 608 176 Left 2 ;- Sending Click Decision
TEXT -272 400 Left 2 ;Device Turn off
TEXT -272 424 Left 2 ;- Receiving Click Decision
TEXT -272 448 Left 2 ;- Turning device off
TEXT 176 128 Left 2 ;- Receiving Click Decision
TEXT 608 464 Left 2 ;- Receiving Click Decision
TEXT 608 488 Left 2 ;- Toggling LED Indication
TEXT -240 208 Left 2 ;Testing Part
TEXT -240 232 Left 2 ;- Dummy Confirmation Sending
TEXT 176 256 Left 2 ;Testing Part
TEXT 176 304 Left 2 ;- Dummy Turn on (1 Minute )
TEXT 176 352 Left 2 ;- Dummy Turn off ( 1 Minute )
TEXT 176 328 Left 2 ;- Send Dummy Turn on Confirm
TEXT 176 376 Left 2 ;- Send Dummy Turn off Confirm
TEXT 608 208 Left 2 ;Testing Part
TEXT 608 280 Left 2 ;- Send Dummy Click Time ( Short )
TEXT -272 480 Left 2 ;Testing Part
TEXT -272 528 Left 2 ;- Device Turn off
TEXT 608 520 Left 2 ;Testing Part
TEXT 608 544 Left 2 ;- Turn Power LED on
TEXT 608 568 Left 2 ;- Turn Click LED on
TEXT 608 592 Left 2 ;- Turn Power LED Blink on
TEXT -240 280 Left 2 ;- Dummy Extracting Commands
TEXT -240 256 Left 2 ;- Dummy Receiving Commands
TEXT 176 280 Left 2 ;- Send Dummy Turn on Confirm
TEXT 608 232 Left 2 ;- Receiving Dummy Click
TEXT 608 256 Left 2 ;- Measuring Dummy Click Time
TEXT -272 504 Left 2 ;- Receiving Dummy Click Decision
TEXT 608 304 Left 2 ;- Send Dummy Click Time ( Long )
TEXT 176 200 Left 2 ;- Send Turn on Confirm
TEXT 176 224 Left 2 ;- Send Turn off Confirm
TEXT 208 -80 Left 2 ;Main Loop Control Handler
TEXT 208 -56 Left 2 ;Test Loop Handler
TEXT -240 56 Left 2 ;UART_Com.C
TEXT 176 56 Left 2 ;Relay_Con.C
TEXT 608 56 Left 2 ;Butt_Con.C
TEXT -272 360 Left 2 ;Turn_off.C
TEXT 608 392 Left 2 ;LED_Sign.C
RECTANGLE Normal 528 -16 192 -128
RECTANGLE Normal 128 304 -256 32
RECTANGLE Normal 560 400 160 32
RECTANGLE Normal 1008 336 592 32
RECTANGLE Normal 912 624 592 368
RECTANGLE Normal 128 560 -288 336
